<?xml version="1.0" encoding="utf-8"?>
<routes>
	<vType id="CarA" length="5" maxSpeed="22" color="0,1,0"/>
	<vType id="CarB" length="5" maxSpeed="22" color="1,0,0"/>
	<flow id="A01" type="CarA" begin="0" end="600" number="65">
		<route edges="E01"/>
	</flow>
	<flow id="B01" type="CarB" begin="0" end="600" number="2583">
		<route edges="E01"/>
	</flow>
	<flow id="A03" type="CarA" begin="0" end="600" number="79">
		<route edges="E03"/>
	</flow>
	<flow id="B03" type="CarB" begin="0" end="600" number="3619">
		<route edges="E03"/>
	</flow>
	<flow id="A04" type="CarA" begin="0" end="600" number="60">
		<route edges="E04"/>
	</flow>
	<flow id="B04" type="CarB" begin="0" end="600" number="8115">
		<route edges="E04"/>
	</flow>
	<flow id="A10" type="CarA" begin="0" end="600" number="3">
		<route edges="E10"/>
	</flow>
	<flow id="B10" type="CarB" begin="0" end="600" number="2537">
		<route edges="E10"/>
	</flow>
	<flow id="A12" type="CarA" begin="0" end="600" number="7">
		<route edges="E12"/>
	</flow>
	<flow id="B12" type="CarB" begin="0" end="600" number="7061">
		<route edges="E12"/>
	</flow>
	<flow id="A14" type="CarA" begin="0" end="600" number="5">
		<route edges="E14"/>
	</flow>
	<flow id="B14" type="CarB" begin="0" end="600" number="7766">
		<route edges="E14"/>
	</flow>
	<flow id="A21" type="CarA" begin="0" end="600" number="26">
		<route edges="E21"/>
	</flow>
	<flow id="B21" type="CarB" begin="0" end="600" number="3883">
		<route edges="E21"/>
	</flow>
	<flow id="A23" type="CarA" begin="0" end="600" number="31">
		<route edges="E23"/>
	</flow>
	<flow id="B23" type="CarB" begin="0" end="600" number="1249">
		<route edges="E23"/>
	</flow>
	<flow id="A24" type="CarA" begin="0" end="600" number="20">
		<route edges="E24"/>
	</flow>
	<flow id="B24" type="CarB" begin="0" end="600" number="4803">
		<route edges="E24"/>
	</flow>
	<flow id="A30" type="CarA" begin="0" end="600" number="7">
		<route edges="E30"/>
	</flow>
	<flow id="B30" type="CarB" begin="0" end="600" number="1589">
		<route edges="E30"/>
	</flow>
	<flow id="A32" type="CarA" begin="0" end="600" number="23">
		<route edges="E32"/>
	</flow>
	<flow id="B32" type="CarB" begin="0" end="600" number="7191">
		<route edges="E32"/>
	</flow>
	<flow id="A34" type="CarA" begin="0" end="600" number="11">
		<route edges="E34"/>
	</flow>
	<flow id="B34" type="CarB" begin="0" end="600" number="6433">
		<route edges="E34"/>
	</flow>
	<flow id="A40" type="CarA" begin="0" end="600" number="12">
		<route edges="E40"/>
	</flow>
	<flow id="B40" type="CarB" begin="0" end="600" number="6396">
		<route edges="E40"/>
	</flow>
	<flow id="A41" type="CarA" begin="0" end="600" number="21">
		<route edges="E41"/>
	</flow>
	<flow id="B41" type="CarB" begin="0" end="600" number="9123">
		<route edges="E41"/>
	</flow>
	<flow id="A42" type="CarA" begin="0" end="600" number="43">
		<route edges="E42"/>
	</flow>
	<flow id="B42" type="CarB" begin="0" end="600" number="5779">
		<route edges="E42"/>
	</flow>
	<flow id="A43" type="CarA" begin="0" end="600" number="33">
		<route edges="E43"/>
	</flow>
	<flow id="B43" type="CarB" begin="0" end="600" number="8752">
		<route edges="E43"/>
	</flow>
</routes>
