<?xml version="1.0" encoding="UTF-8"?>
<routes>

   <vType id="CarA" length="5" maxSpeed="22"/>
     <flow id="a0" color="1,1,0"  begin="0" end= "3600" vehsPerHour='500' type="CarA" departLane="random" departSpeed="max">
     <route edges="E0"/>
    </flow>

    <flow id="-a0" color="1,0,1"  begin="0" end= "3600" vehsPerHour='500' type="CarA" departLane="random" departSpeed="max">
     <route edges="-E0"/>
    </flow>

     <flow id="a1" color="1,0,1"  begin="0" end= "3600" vehsPerHour='500' type="CarA" departLane="random" departSpeed="max">
     <route edges="E1"/>
    </flow>

    <flow id="-a1" color="0,0,1"  begin="0" end= "3600" vehsPerHour='500' type="CarA" departLane="random" departSpeed="max">
     <route edges="-E1"/>
    </flow>

     <flow id="a2" color="1,1,1"  begin="0" end= "3600" vehsPerHour='500' type="CarA" departLane="random" departSpeed="max">
     <route edges="E2"/>
    </flow>

    <flow id="-a2" color="0,1,0"  begin="0" end= "3600" vehsPerHour='500' type="CarA" departLane="random" departSpeed="max">
     <route edges="-E2"/>
    </flow>

     <flow id="a4" color="1,1,0"  begin="0" end= "3600" vehsPerHour='500' type="CarA" departLane="random" departSpeed="max">
     <route edges="E4"/>
    </flow>

    <flow id="-a3" color="1,0,0"  begin="0" end= "3600" vehsPerHour='500' type="CarA" departLane="random" departSpeed="max">
     <route edges="-E3"/>
    </flow>

    <flow id="a3" color="1,1,1"  begin="0" end= "3600" vehsPerHour='500' type="CarA" departLane="random" departSpeed="max">
     <route edges="E3"/>
    </flow>

    <flow id="-a4" color="1,0,1"  begin="0" end= "3600" vehsPerHour='500' type="CarA" departLane="random" departSpeed="max">
     <route edges="-E4"/>
    </flow>

    <flow id="a5" color="1,1,1"  begin="0" end= "3600" vehsPerHour='500' type="CarA" departLane="random" departSpeed="max">
     <route edges="E5"/>
    </flow>

    <flow id="-a5" color="1,0,0"  begin="0" end= "3600" vehsPerHour='500' type="CarA" departLane="random" departSpeed="max">
     <route edges="-E5"/>
    </flow>

     <flow id="a6" color="1,1,0"  begin="0" end= "3600" vehsPerHour='500' type="CarA" departLane="random" departSpeed="max">
     <route edges="E6"/>
    </flow>

    <flow id="-a6" color="1,0,1"  begin="0" end= "3600" vehsPerHour='500' type="CarA" departLane="random" departSpeed="max">
     <route edges="-E6"/>
    </flow>

     <flow id="a7" color="0,1,0"  begin="0" end= "3600" vehsPerHour='500' type="CarA" departLane="random" departSpeed="max">
     <route edges="E7"/>
    </flow>

    <flow id="-a7" color="0,0,1"  begin="0" end= "3600" vehsPerHour='500' type="CarA" departLane="random" departSpeed="max">
     <route edges="-E7"/>
    </flow>
</routes>
