<?xml version="1.0" encoding="UTF-8"?>

<!-- generated on 2022-02-21 19:59:24 by Eclipse SUMO netedit Version 1.11.0
<configuration xmlns:xsi="http://www.w3.org/2001/XMLSchema-instance" xsi:noNamespaceSchemaLocation="http://sumo.dlr.de/xsd/netconvertConfiguration.xsd">

    <input>
        <sumo-net-file value="D:\edge%20download\Traci-master\hello.net.xml"/>
    </input>

    <output>
        <output-file value="D:\edge%20download\Traci-master\hello.net.xml"/>
    </output>

    <processing>
        <geometry.min-radius.fix.railways value="false"/>
        <geometry.max-grade.fix value="false"/>
        <offset.disable-normalization value="true"/>
        <lefthand value="false"/>
    </processing>

    <junctions>
        <no-turnarounds value="true"/>
        <junctions.corner-detail value="5"/>
        <junctions.limit-turn-speed value="5.5"/>
        <rectangular-lane-cut value="false"/>
    </junctions>

    <pedestrian>
        <walkingareas value="false"/>
    </pedestrian>

    <report>
        <aggregate-warnings value="5"/>
    </report>

</configuration>
-->

<net version="1.9" junctionCornerDetail="5" limitTurnSpeed="5.50" xmlns:xsi="http://www.w3.org/2001/XMLSchema-instance" xsi:noNamespaceSchemaLocation="http://sumo.dlr.de/xsd/net_file.xsd">

    <location netOffset="0.00,0.00" convBoundary="-1000.00,-1000.00,1000.00,1000.00" origBoundary="-10000000000.00,-10000000000.00,10000000000.00,10000000000.00" projParameter="!"/>

    <edge id=":J0_0" function="internal">
        <lane id=":J0_0_0" index="0" speed="13.89" length="56.73" shape="24.87,986.44 12.44,995.77 -0.00,998.88 -12.44,995.77 -24.87,986.44"/>
        <lane id=":J0_0_1" index="1" speed="13.89" length="51.57" shape="22.61,984.18 11.31,992.66 -0.00,995.48 -11.31,992.66 -22.61,984.18"/>
    </edge>
    <edge id=":J0_2" function="internal">
        <lane id=":J0_2_0" index="0" speed="9.86" length="10.82" shape="20.35,981.91 11.99,987.02 10.96,987.00"/>
        <lane id=":J0_2_1" index="1" speed="9.32" length="9.56" shape="20.35,981.91 12.98,986.29 11.99,986.22"/>
    </edge>
    <edge id=":J0_11" function="internal">
        <lane id=":J0_11_0" index="0" speed="9.86" length="24.49" shape="10.96,987.00 3.83,986.88 -2.35,981.99 -4.80,972.82"/>
    </edge>
    <edge id=":J0_12" function="internal">
        <lane id=":J0_12_0" index="0" speed="9.32" length="21.82" shape="11.99,986.22 5.87,985.82 0.52,981.12 -1.60,972.82"/>
    </edge>
    <edge id=":J0_4" function="internal">
        <lane id=":J0_4_0" index="0" speed="5.47" length="9.74" shape="8.00,972.82 8.35,975.92 9.39,977.33 11.13,977.07 13.56,975.13"/>
    </edge>
    <edge id=":J0_5" function="internal">
        <lane id=":J0_5_0" index="0" speed="10.36" length="39.19" shape="4.80,972.82 2.16,983.19 -4.53,989.05 -13.41,989.64 -22.61,984.18"/>
        <lane id=":J0_5_1" index="1" speed="9.32" length="31.38" shape="1.60,972.82 -0.52,981.12 -5.87,985.82 -12.98,986.29 -20.35,981.91"/>
    </edge>
    <edge id=":J0_7" function="internal">
        <lane id=":J0_7_0" index="0" speed="5.47" length="9.74" shape="-13.56,975.13 -11.13,977.07 -9.39,977.33 -8.35,975.92 -8.00,972.82"/>
    </edge>
    <edge id=":J0_8" function="internal">
        <lane id=":J0_8_0" index="0" speed="11.59" length="30.93" shape="-13.56,975.13 -6.78,980.21 -0.00,981.91 6.78,980.21 13.56,975.13"/>
        <lane id=":J0_8_1" index="1" speed="12.49" length="36.09" shape="-15.82,977.39 -7.91,983.32 -0.00,985.30 7.91,983.32 15.82,977.39"/>
        <lane id=":J0_8_2" index="2" speed="13.33" length="41.25" shape="-18.09,979.65 -9.04,986.43 0.00,988.69 9.04,986.43 18.09,979.65"/>
    </edge>
    <edge id=":J1_0" function="internal">
        <lane id=":J1_0_0" index="0" speed="13.89" length="56.73" shape="986.44,-24.87 995.77,-12.44 998.88,0.00 995.77,12.44 986.44,24.87"/>
        <lane id=":J1_0_1" index="1" speed="13.89" length="51.57" shape="984.18,-22.61 992.66,-11.31 995.48,0.00 992.66,11.31 984.18,22.61"/>
    </edge>
    <edge id=":J1_2" function="internal">
        <lane id=":J1_2_0" index="0" speed="9.86" length="10.82" shape="981.91,-20.35 987.02,-11.99 987.00,-10.96"/>
        <lane id=":J1_2_1" index="1" speed="9.32" length="9.56" shape="981.91,-20.35 986.29,-12.98 986.22,-11.99"/>
    </edge>
    <edge id=":J1_11" function="internal">
        <lane id=":J1_11_0" index="0" speed="9.86" length="24.49" shape="987.00,-10.96 986.88,-3.83 981.99,2.35 972.82,4.80"/>
    </edge>
    <edge id=":J1_12" function="internal">
        <lane id=":J1_12_0" index="0" speed="9.32" length="21.82" shape="986.22,-11.99 985.82,-5.87 981.12,-0.52 972.82,1.60"/>
    </edge>
    <edge id=":J1_4" function="internal">
        <lane id=":J1_4_0" index="0" speed="5.47" length="9.74" shape="972.82,-8.00 975.92,-8.35 977.33,-9.39 977.07,-11.13 975.13,-13.56"/>
    </edge>
    <edge id=":J1_5" function="internal">
        <lane id=":J1_5_0" index="0" speed="10.36" length="39.19" shape="972.82,-4.80 983.19,-2.16 989.05,4.53 989.64,13.41 984.18,22.61"/>
        <lane id=":J1_5_1" index="1" speed="9.32" length="31.38" shape="972.82,-1.60 981.12,0.52 985.82,5.87 986.29,12.98 981.91,20.35"/>
    </edge>
    <edge id=":J1_7" function="internal">
        <lane id=":J1_7_0" index="0" speed="5.47" length="9.74" shape="975.13,13.56 977.07,11.13 977.33,9.39 975.92,8.35 972.82,8.00"/>
    </edge>
    <edge id=":J1_8" function="internal">
        <lane id=":J1_8_0" index="0" speed="11.59" length="30.93" shape="975.13,13.56 980.21,6.78 981.91,0.00 980.21,-6.78 975.13,-13.56"/>
        <lane id=":J1_8_1" index="1" speed="12.49" length="36.09" shape="977.39,15.82 983.32,7.91 985.30,0.00 983.32,-7.91 977.39,-15.82"/>
        <lane id=":J1_8_2" index="2" speed="13.33" length="41.25" shape="979.65,18.09 986.43,9.04 988.69,-0.00 986.43,-9.04 979.65,-18.09"/>
    </edge>
    <edge id=":J2_0" function="internal">
        <lane id=":J2_0_0" index="0" speed="5.47" length="9.74" shape="-8.00,-972.82 -8.35,-975.92 -9.39,-977.33 -11.13,-977.07 -13.56,-975.13"/>
    </edge>
    <edge id=":J2_1" function="internal">
        <lane id=":J2_1_0" index="0" speed="10.36" length="39.19" shape="-4.80,-972.82 -2.16,-983.19 4.53,-989.05 13.41,-989.64 22.61,-984.18"/>
        <lane id=":J2_1_1" index="1" speed="9.32" length="31.38" shape="-1.60,-972.82 0.52,-981.12 5.87,-985.82 12.98,-986.29 20.35,-981.91"/>
    </edge>
    <edge id=":J2_3" function="internal">
        <lane id=":J2_3_0" index="0" speed="5.47" length="9.74" shape="13.56,-975.13 11.13,-977.07 9.39,-977.33 8.35,-975.92 8.00,-972.82"/>
    </edge>
    <edge id=":J2_4" function="internal">
        <lane id=":J2_4_0" index="0" speed="11.59" length="30.93" shape="13.56,-975.13 6.78,-980.21 0.00,-981.91 -6.78,-980.21 -13.56,-975.13"/>
        <lane id=":J2_4_1" index="1" speed="12.49" length="36.09" shape="15.82,-977.39 7.91,-983.32 0.00,-985.30 -7.91,-983.32 -15.82,-977.39"/>
        <lane id=":J2_4_2" index="2" speed="13.33" length="41.25" shape="18.09,-979.65 9.04,-986.43 -0.00,-988.69 -9.04,-986.43 -18.09,-979.65"/>
    </edge>
    <edge id=":J2_7" function="internal">
        <lane id=":J2_7_0" index="0" speed="13.89" length="56.73" shape="-24.87,-986.44 -12.44,-995.77 0.00,-998.88 12.44,-995.77 24.87,-986.44"/>
        <lane id=":J2_7_1" index="1" speed="13.89" length="51.57" shape="-22.61,-984.18 -11.31,-992.66 0.00,-995.48 11.31,-992.66 22.61,-984.18"/>
    </edge>
    <edge id=":J2_9" function="internal">
        <lane id=":J2_9_0" index="0" speed="9.86" length="10.82" shape="-20.35,-981.91 -11.99,-987.02 -10.96,-987.00"/>
        <lane id=":J2_9_1" index="1" speed="9.32" length="9.56" shape="-20.35,-981.91 -12.98,-986.29 -11.99,-986.22"/>
    </edge>
    <edge id=":J2_11" function="internal">
        <lane id=":J2_11_0" index="0" speed="9.86" length="24.49" shape="-10.96,-987.00 -3.83,-986.88 2.35,-981.99 4.80,-972.82"/>
    </edge>
    <edge id=":J2_12" function="internal">
        <lane id=":J2_12_0" index="0" speed="9.32" length="21.82" shape="-11.99,-986.22 -5.87,-985.82 -0.52,-981.12 1.60,-972.82"/>
    </edge>
    <edge id=":J3_0" function="internal">
        <lane id=":J3_0_0" index="0" speed="13.89" length="56.73" shape="-986.44,24.87 -995.77,12.44 -998.88,-0.00 -995.77,-12.44 -986.44,-24.87"/>
        <lane id=":J3_0_1" index="1" speed="13.89" length="51.57" shape="-984.18,22.61 -992.66,11.31 -995.48,-0.00 -992.66,-11.31 -984.18,-22.61"/>
    </edge>
    <edge id=":J3_2" function="internal">
        <lane id=":J3_2_0" index="0" speed="9.86" length="10.82" shape="-981.91,20.35 -987.02,11.99 -987.00,10.96"/>
        <lane id=":J3_2_1" index="1" speed="9.32" length="9.56" shape="-981.91,20.35 -986.29,12.98 -986.22,11.99"/>
    </edge>
    <edge id=":J3_11" function="internal">
        <lane id=":J3_11_0" index="0" speed="9.86" length="24.49" shape="-987.00,10.96 -986.88,3.83 -981.99,-2.35 -972.82,-4.80"/>
    </edge>
    <edge id=":J3_12" function="internal">
        <lane id=":J3_12_0" index="0" speed="9.32" length="21.82" shape="-986.22,11.99 -985.82,5.87 -981.12,0.52 -972.82,-1.60"/>
    </edge>
    <edge id=":J3_4" function="internal">
        <lane id=":J3_4_0" index="0" speed="5.47" length="9.74" shape="-972.82,8.00 -975.92,8.35 -977.33,9.39 -977.07,11.13 -975.13,13.56"/>
    </edge>
    <edge id=":J3_5" function="internal">
        <lane id=":J3_5_0" index="0" speed="10.36" length="39.19" shape="-972.82,4.80 -983.19,2.16 -989.05,-4.53 -989.64,-13.41 -984.18,-22.61"/>
        <lane id=":J3_5_1" index="1" speed="9.32" length="31.38" shape="-972.82,1.60 -981.12,-0.52 -985.82,-5.87 -986.29,-12.98 -981.91,-20.35"/>
    </edge>
    <edge id=":J3_7" function="internal">
        <lane id=":J3_7_0" index="0" speed="5.47" length="9.74" shape="-975.13,-13.56 -977.07,-11.13 -977.33,-9.39 -975.92,-8.35 -972.82,-8.00"/>
    </edge>
    <edge id=":J3_8" function="internal">
        <lane id=":J3_8_0" index="0" speed="11.59" length="30.93" shape="-975.13,-13.56 -980.21,-6.78 -981.91,-0.00 -980.21,6.78 -975.13,13.56"/>
        <lane id=":J3_8_1" index="1" speed="12.49" length="36.09" shape="-977.39,-15.82 -983.32,-7.91 -985.30,-0.00 -983.32,7.91 -977.39,15.82"/>
        <lane id=":J3_8_2" index="2" speed="13.33" length="41.25" shape="-979.65,-18.09 -986.43,-9.04 -988.69,0.00 -986.43,9.04 -979.65,18.09"/>
    </edge>
    <edge id=":J4_0" function="internal">
        <lane id=":J4_0_0" index="0" speed="6.51" length="9.03" shape="-8.00,13.60 -8.35,11.15 -9.40,9.40 -11.15,8.35 -13.60,8.00"/>
    </edge>
    <edge id=":J4_1" function="internal">
        <lane id=":J4_1_0" index="0" speed="13.89" length="27.20" shape="-8.00,13.60 -8.00,-13.60"/>
        <lane id=":J4_1_1" index="1" speed="13.89" length="27.20" shape="-4.80,13.60 -4.80,-13.60"/>
        <lane id=":J4_1_2" index="2" speed="13.89" length="27.20" shape="-1.60,13.60 -1.60,-13.60"/>
    </edge>
    <edge id=":J4_4" function="internal">
        <lane id=":J4_4_0" index="0" speed="10.36" length="7.98" shape="-1.60,13.60 -0.65,6.95 -0.00,5.87"/>
    </edge>
    <edge id=":J4_20" function="internal">
        <lane id=":J4_20_0" index="0" speed="10.36" length="16.53" shape="-0.00,5.87 2.20,2.20 6.95,-0.65 13.60,-1.60"/>
    </edge>
    <edge id=":J4_5" function="internal">
        <lane id=":J4_5_0" index="0" speed="6.51" length="9.03" shape="13.60,8.00 11.15,8.35 9.40,9.40 8.35,11.15 8.00,13.60"/>
    </edge>
    <edge id=":J4_6" function="internal">
        <lane id=":J4_6_0" index="0" speed="13.89" length="27.20" shape="13.60,8.00 -13.60,8.00"/>
        <lane id=":J4_6_1" index="1" speed="13.89" length="27.20" shape="13.60,4.80 -13.60,4.80"/>
        <lane id=":J4_6_2" index="2" speed="13.89" length="27.20" shape="13.60,1.60 -13.60,1.60"/>
    </edge>
    <edge id=":J4_9" function="internal">
        <lane id=":J4_9_0" index="0" speed="10.36" length="24.51" shape="13.60,1.60 6.95,0.65 2.20,-2.20 -0.65,-6.95 -1.60,-13.60"/>
    </edge>
    <edge id=":J4_10" function="internal">
        <lane id=":J4_10_0" index="0" speed="6.51" length="9.03" shape="8.00,-13.60 8.35,-11.15 9.40,-9.40 11.15,-8.35 13.60,-8.00"/>
    </edge>
    <edge id=":J4_11" function="internal">
        <lane id=":J4_11_0" index="0" speed="13.89" length="27.20" shape="8.00,-13.60 8.00,13.60"/>
        <lane id=":J4_11_1" index="1" speed="13.89" length="27.20" shape="4.80,-13.60 4.80,13.60"/>
        <lane id=":J4_11_2" index="2" speed="13.89" length="27.20" shape="1.60,-13.60 1.60,13.60"/>
    </edge>
    <edge id=":J4_14" function="internal">
        <lane id=":J4_14_0" index="0" speed="10.36" length="7.98" shape="1.60,-13.60 0.65,-6.95 0.00,-5.87"/>
    </edge>
    <edge id=":J4_21" function="internal">
        <lane id=":J4_21_0" index="0" speed="10.36" length="16.53" shape="0.00,-5.87 -2.20,-2.20 -6.95,0.65 -13.60,1.60"/>
    </edge>
    <edge id=":J4_15" function="internal">
        <lane id=":J4_15_0" index="0" speed="6.51" length="9.03" shape="-13.60,-8.00 -11.15,-8.35 -9.40,-9.40 -8.35,-11.15 -8.00,-13.60"/>
    </edge>
    <edge id=":J4_16" function="internal">
        <lane id=":J4_16_0" index="0" speed="13.89" length="27.20" shape="-13.60,-8.00 13.60,-8.00"/>
        <lane id=":J4_16_1" index="1" speed="13.89" length="27.20" shape="-13.60,-4.80 13.60,-4.80"/>
        <lane id=":J4_16_2" index="2" speed="13.89" length="27.20" shape="-13.60,-1.60 13.60,-1.60"/>
    </edge>
    <edge id=":J4_19" function="internal">
        <lane id=":J4_19_0" index="0" speed="10.36" length="24.51" shape="-13.60,-1.60 -6.95,-0.65 -2.20,2.20 0.65,6.95 1.60,13.60"/>
    </edge>

    <edge id="-E0" from="J1" to="J0" priority="-1" length="1414.20">
        <lane id="-E0_0" index="0" speed="13.89" length="1414.20" shape="986.44,24.87 24.87,986.44"/>
        <lane id="-E0_1" index="1" speed="13.89" length="1414.20" shape="984.18,22.61 22.61,984.18"/>
        <lane id="-E0_2" index="2" speed="13.89" length="1414.20" shape="981.91,20.35 20.35,981.91"/>
    </edge>
    <edge id="-E1" from="J1" to="J2" priority="-1" length="1414.20">
        <lane id="-E1_0" index="0" speed="13.89" length="1414.20" shape="975.13,-13.56 13.56,-975.13"/>
        <lane id="-E1_1" index="1" speed="13.89" length="1414.20" shape="977.39,-15.82 15.82,-977.39"/>
        <lane id="-E1_2" index="2" speed="13.89" length="1414.20" shape="979.65,-18.09 18.09,-979.65"/>
    </edge>
    <edge id="-E2" from="J2" to="J3" priority="-1" length="1414.20">
        <lane id="-E2_0" index="0" speed="13.89" length="1414.20" shape="-13.56,-975.13 -975.13,-13.56"/>
        <lane id="-E2_1" index="1" speed="13.89" length="1414.20" shape="-15.82,-977.39 -977.39,-15.82"/>
        <lane id="-E2_2" index="2" speed="13.89" length="1414.20" shape="-18.09,-979.65 -979.65,-18.09"/>
    </edge>
    <edge id="-E3" from="J0" to="J3" priority="-1" length="1414.20">
        <lane id="-E3_0" index="0" speed="13.89" length="1414.20" shape="-24.87,986.44 -986.44,24.87"/>
        <lane id="-E3_1" index="1" speed="13.89" length="1414.20" shape="-22.61,984.18 -984.18,22.61"/>
        <lane id="-E3_2" index="2" speed="13.89" length="1414.20" shape="-20.35,981.91 -981.91,20.35"/>
    </edge>
    <edge id="-E4" from="J0" to="J4" priority="-1" length="1000.00">
        <lane id="-E4_0" index="0" speed="13.89" length="1000.00" shape="-8.00,972.82 -8.00,13.60"/>
        <lane id="-E4_1" index="1" speed="13.89" length="1000.00" shape="-4.80,972.82 -4.80,13.60"/>
        <lane id="-E4_2" index="2" speed="13.89" length="1000.00" shape="-1.60,972.82 -1.60,13.60"/>
    </edge>
    <edge id="-E5" from="J1" to="J4" priority="-1" length="1000.00">
        <lane id="-E5_0" index="0" speed="13.89" length="1000.00" shape="972.82,8.00 13.60,8.00"/>
        <lane id="-E5_1" index="1" speed="13.89" length="1000.00" shape="972.82,4.80 13.60,4.80"/>
        <lane id="-E5_2" index="2" speed="13.89" length="1000.00" shape="972.82,1.60 13.60,1.60"/>
    </edge>
    <edge id="-E6" from="J2" to="J4" priority="-1" length="1000.00">
        <lane id="-E6_0" index="0" speed="13.89" length="1000.00" shape="8.00,-972.82 8.00,-13.60"/>
        <lane id="-E6_1" index="1" speed="13.89" length="1000.00" shape="4.80,-972.82 4.80,-13.60"/>
        <lane id="-E6_2" index="2" speed="13.89" length="1000.00" shape="1.60,-972.82 1.60,-13.60"/>
    </edge>
    <edge id="-E7" from="J3" to="J4" priority="-1" length="1000.00">
        <lane id="-E7_0" index="0" speed="13.89" length="1000.00" shape="-972.82,-8.00 -13.60,-8.00"/>
        <lane id="-E7_1" index="1" speed="13.89" length="1000.00" shape="-972.82,-4.80 -13.60,-4.80"/>
        <lane id="-E7_2" index="2" speed="13.89" length="1000.00" shape="-972.82,-1.60 -13.60,-1.60"/>
    </edge>
    <edge id="E0" from="J0" to="J1" priority="-1" length="1414.20">
        <lane id="E0_0" index="0" speed="13.89" length="1414.20" shape="13.56,975.13 975.13,13.56"/>
        <lane id="E0_1" index="1" speed="13.89" length="1414.20" shape="15.82,977.39 977.39,15.82"/>
        <lane id="E0_2" index="2" speed="13.89" length="1414.20" shape="18.09,979.65 979.65,18.09"/>
    </edge>
    <edge id="E1" from="J2" to="J1" priority="-1" length="1414.20">
        <lane id="E1_0" index="0" speed="13.89" length="1414.20" shape="24.87,-986.44 986.44,-24.87"/>
        <lane id="E1_1" index="1" speed="13.89" length="1414.20" shape="22.61,-984.18 984.18,-22.61"/>
        <lane id="E1_2" index="2" speed="13.89" length="1414.20" shape="20.35,-981.91 981.91,-20.35"/>
    </edge>
    <edge id="E2" from="J3" to="J2" priority="-1" length="1414.20">
        <lane id="E2_0" index="0" speed="13.89" length="1414.20" shape="-986.44,-24.87 -24.87,-986.44"/>
        <lane id="E2_1" index="1" speed="13.89" length="1414.20" shape="-984.18,-22.61 -22.61,-984.18"/>
        <lane id="E2_2" index="2" speed="13.89" length="1414.20" shape="-981.91,-20.35 -20.35,-981.91"/>
    </edge>
    <edge id="E3" from="J3" to="J0" priority="-1" length="1414.20">
        <lane id="E3_0" index="0" speed="13.89" length="1414.20" shape="-975.13,13.56 -13.56,975.13"/>
        <lane id="E3_1" index="1" speed="13.89" length="1414.20" shape="-977.39,15.82 -15.82,977.39"/>
        <lane id="E3_2" index="2" speed="13.89" length="1414.20" shape="-979.65,18.09 -18.09,979.65"/>
    </edge>
    <edge id="E4" from="J4" to="J0" priority="-1" length="1000.00">
        <lane id="E4_0" index="0" speed="13.89" length="1000.00" shape="8.00,13.60 8.00,972.82"/>
        <lane id="E4_1" index="1" speed="13.89" length="1000.00" shape="4.80,13.60 4.80,972.82"/>
        <lane id="E4_2" index="2" speed="13.89" length="1000.00" shape="1.60,13.60 1.60,972.82"/>
    </edge>
    <edge id="E5" from="J4" to="J1" priority="-1" length="1000.00">
        <lane id="E5_0" index="0" speed="13.89" length="1000.00" shape="13.60,-8.00 972.82,-8.00"/>
        <lane id="E5_1" index="1" speed="13.89" length="1000.00" shape="13.60,-4.80 972.82,-4.80"/>
        <lane id="E5_2" index="2" speed="13.89" length="1000.00" shape="13.60,-1.60 972.82,-1.60"/>
    </edge>
    <edge id="E6" from="J4" to="J2" priority="-1" length="1000.00">
        <lane id="E6_0" index="0" speed="13.89" length="1000.00" shape="-8.00,-13.60 -8.00,-972.82"/>
        <lane id="E6_1" index="1" speed="13.89" length="1000.00" shape="-4.80,-13.60 -4.80,-972.82"/>
        <lane id="E6_2" index="2" speed="13.89" length="1000.00" shape="-1.60,-13.60 -1.60,-972.82"/>
    </edge>
    <edge id="E7" from="J4" to="J3" priority="-1" length="1000.00">
        <lane id="E7_0" index="0" speed="13.89" length="1000.00" shape="-13.60,8.00 -972.82,8.00"/>
        <lane id="E7_1" index="1" speed="13.89" length="1000.00" shape="-13.60,4.80 -972.82,4.80"/>
        <lane id="E7_2" index="2" speed="13.89" length="1000.00" shape="-13.60,1.60 -972.82,1.60"/>
    </edge>

    <junction id="J0" type="priority" x="0.00" y="1000.00" incLanes="-E0_0 -E0_1 -E0_2 E4_0 E4_1 E4_2 E3_0 E3_1 E3_2" intLanes=":J0_0_0 :J0_0_1 :J0_11_0 :J0_12_0 :J0_4_0 :J0_5_0 :J0_5_1 :J0_7_0 :J0_8_0 :J0_8_1 :J0_8_2" shape="26.00,987.57 12.43,974.00 10.86,975.12 10.31,975.12 9.91,974.73 9.68,973.97 9.60,972.82 -9.60,972.82 -9.91,974.73 -10.31,975.12 -10.86,975.12 -11.56,974.75 -12.43,974.00 -26.00,987.57 -17.34,994.80 -8.67,999.13 0.00,1000.57 8.67,999.13 17.34,994.80">
        <request index="0"  response="00000000000" foes="00001100000" cont="0"/>
        <request index="1"  response="00000000000" foes="00001100000" cont="0"/>
        <request index="2"  response="11100000000" foes="11101100000" cont="1"/>
        <request index="3"  response="11100000000" foes="11101100000" cont="1"/>
        <request index="4"  response="11100000000" foes="11100000000" cont="0"/>
        <request index="5"  response="11100001111" foes="11100001111" cont="0"/>
        <request index="6"  response="11100001111" foes="11100001111" cont="0"/>
        <request index="7"  response="00000000000" foes="00000000000" cont="0"/>
        <request index="8"  response="00000000000" foes="00001111100" cont="0"/>
        <request index="9"  response="00000000000" foes="00001111100" cont="0"/>
        <request index="10" response="00000000000" foes="00001111100" cont="0"/>
    </junction>
    <junction id="J1" type="priority" x="1000.00" y="0.00" incLanes="E1_0 E1_1 E1_2 E5_0 E5_1 E5_2 E0_0 E0_1 E0_2" intLanes=":J1_0_0 :J1_0_1 :J1_11_0 :J1_12_0 :J1_4_0 :J1_5_0 :J1_5_1 :J1_7_0 :J1_8_0 :J1_8_1 :J1_8_2" shape="987.57,-26.00 974.00,-12.43 975.12,-10.86 975.12,-10.31 974.73,-9.91 973.97,-9.68 972.82,-9.60 972.82,9.60 974.73,9.91 975.12,10.31 975.12,10.86 974.75,11.56 974.00,12.43 987.57,26.00 994.80,17.34 999.13,8.67 1000.57,-0.00 999.13,-8.67 994.80,-17.34">
        <request index="0"  response="00000000000" foes="00001100000" cont="0"/>
        <request index="1"  response="00000000000" foes="00001100000" cont="0"/>
        <request index="2"  response="11100000000" foes="11101100000" cont="1"/>
        <request index="3"  response="11100000000" foes="11101100000" cont="1"/>
        <request index="4"  response="11100000000" foes="11100000000" cont="0"/>
        <request index="5"  response="11100001111" foes="11100001111" cont="0"/>
        <request index="6"  response="11100001111" foes="11100001111" cont="0"/>
        <request index="7"  response="00000000000" foes="00000000000" cont="0"/>
        <request index="8"  response="00000000000" foes="00001111100" cont="0"/>
        <request index="9"  response="00000000000" foes="00001111100" cont="0"/>
        <request index="10" response="00000000000" foes="00001111100" cont="0"/>
    </junction>
    <junction id="J2" type="priority" x="0.00" y="-1000.00" incLanes="E6_0 E6_1 E6_2 -E1_0 -E1_1 -E1_2 E2_0 E2_1 E2_2" intLanes=":J2_0_0 :J2_1_0 :J2_1_1 :J2_3_0 :J2_4_0 :J2_4_1 :J2_4_2 :J2_7_0 :J2_7_1 :J2_11_0 :J2_12_0" shape="-9.60,-972.82 9.60,-972.82 9.91,-974.73 10.31,-975.12 10.86,-975.12 11.56,-974.75 12.43,-974.00 26.00,-987.57 17.34,-994.80 8.67,-999.13 -0.00,-1000.57 -8.67,-999.13 -17.34,-994.80 -26.00,-987.57 -12.43,-974.00 -10.86,-975.12 -10.31,-975.12 -9.91,-974.73 -9.68,-973.97">
        <request index="0"  response="00001110000" foes="00001110000" cont="0"/>
        <request index="1"  response="11111110000" foes="11111110000" cont="0"/>
        <request index="2"  response="11111110000" foes="11111110000" cont="0"/>
        <request index="3"  response="00000000000" foes="00000000000" cont="0"/>
        <request index="4"  response="00000000000" foes="11000000111" cont="0"/>
        <request index="5"  response="00000000000" foes="11000000111" cont="0"/>
        <request index="6"  response="00000000000" foes="11000000111" cont="0"/>
        <request index="7"  response="00000000000" foes="00000000110" cont="0"/>
        <request index="8"  response="00000000000" foes="00000000110" cont="0"/>
        <request index="9"  response="00001110000" foes="00001110110" cont="1"/>
        <request index="10" response="00001110000" foes="00001110110" cont="1"/>
    </junction>
    <junction id="J3" type="priority" x="-1000.00" y="0.00" incLanes="-E3_0 -E3_1 -E3_2 E7_0 E7_1 E7_2 -E2_0 -E2_1 -E2_2" intLanes=":J3_0_0 :J3_0_1 :J3_11_0 :J3_12_0 :J3_4_0 :J3_5_0 :J3_5_1 :J3_7_0 :J3_8_0 :J3_8_1 :J3_8_2" shape="-987.57,26.00 -974.00,12.43 -975.12,10.86 -975.12,10.31 -974.73,9.91 -973.97,9.68 -972.82,9.60 -972.82,-9.60 -974.73,-9.91 -975.12,-10.31 -975.12,-10.86 -974.75,-11.56 -974.00,-12.43 -987.57,-26.00 -994.80,-17.34 -999.13,-8.67 -1000.57,0.00 -999.13,8.67 -994.80,17.34">
        <request index="0"  response="00000000000" foes="00001100000" cont="0"/>
        <request index="1"  response="00000000000" foes="00001100000" cont="0"/>
        <request index="2"  response="11100000000" foes="11101100000" cont="1"/>
        <request index="3"  response="11100000000" foes="11101100000" cont="1"/>
        <request index="4"  response="11100000000" foes="11100000000" cont="0"/>
        <request index="5"  response="11100001111" foes="11100001111" cont="0"/>
        <request index="6"  response="11100001111" foes="11100001111" cont="0"/>
        <request index="7"  response="00000000000" foes="00000000000" cont="0"/>
        <request index="8"  response="00000000000" foes="00001111100" cont="0"/>
        <request index="9"  response="00000000000" foes="00001111100" cont="0"/>
        <request index="10" response="00000000000" foes="00001111100" cont="0"/>
    </junction>
    <junction id="J4" type="priority" x="0.00" y="0.00" incLanes="-E4_0 -E4_1 -E4_2 -E5_0 -E5_1 -E5_2 -E6_0 -E6_1 -E6_2 -E7_0 -E7_1 -E7_2" intLanes=":J4_0_0 :J4_1_0 :J4_1_1 :J4_1_2 :J4_20_0 :J4_5_0 :J4_6_0 :J4_6_1 :J4_6_2 :J4_9_0 :J4_10_0 :J4_11_0 :J4_11_1 :J4_11_2 :J4_21_0 :J4_15_0 :J4_16_0 :J4_16_1 :J4_16_2 :J4_19_0" shape="-9.60,13.60 9.60,13.60 10.04,11.38 10.60,10.60 11.38,10.04 12.38,9.71 13.60,9.60 13.60,-9.60 11.38,-10.04 10.60,-10.60 10.04,-11.38 9.71,-12.38 9.60,-13.60 -9.60,-13.60 -10.04,-11.38 -10.60,-10.60 -11.38,-10.04 -12.38,-9.71 -13.60,-9.60 -13.60,9.60 -11.38,10.04 -10.60,10.60 -10.04,11.38 -9.71,12.38">
        <request index="0"  response="00000000000000000000" foes="00000000000111000000" cont="0"/>
        <request index="1"  response="00000000000000000000" foes="11111100001111000000" cont="0"/>
        <request index="2"  response="00000000000000000000" foes="11111100001111000000" cont="0"/>
        <request index="3"  response="00000000000000000000" foes="11111100001111000000" cont="0"/>
        <request index="4"  response="00000011100000000000" foes="11110011101111000000" cont="1"/>
        <request index="5"  response="00000011100000000000" foes="00000011100000000000" cont="0"/>
        <request index="6"  response="00000111100000011111" foes="10000111100000011111" cont="0"/>
        <request index="7"  response="00000111100000011111" foes="10000111100000011111" cont="0"/>
        <request index="8"  response="00000111100000011111" foes="10000111100000011111" cont="0"/>
        <request index="9"  response="01110111100000011110" foes="01110111100000011110" cont="0"/>
        <request index="10" response="00000000000000000000" foes="01110000000000000000" cont="0"/>
        <request index="11" response="00000000000000000000" foes="11110000001111110000" cont="0"/>
        <request index="12" response="00000000000000000000" foes="11110000001111110000" cont="0"/>
        <request index="13" response="00000000000000000000" foes="11110000001111110000" cont="0"/>
        <request index="14" response="00000000000000001110" foes="11110000001111001110" cont="1"/>
        <request index="15" response="00000000000000001110" foes="00000000000000001110" cont="0"/>
        <request index="16" response="00000111110000011110" foes="00000111111000011110" cont="0"/>
        <request index="17" response="00000111110000011110" foes="00000111111000011110" cont="0"/>
        <request index="18" response="00000111110000011110" foes="00000111111000011110" cont="0"/>
        <request index="19" response="00000111100111011110" foes="00000111100111011110" cont="0"/>
    </junction>

    <junction id=":J0_11_0" type="internal" x="10.96" y="987.00" incLanes=":J0_2_0 E3_0 E3_1 E3_2" intLanes=":J0_5_0 :J0_5_1 :J0_8_0 :J0_8_1 :J0_8_2"/>
    <junction id=":J0_12_0" type="internal" x="11.99" y="986.22" incLanes=":J0_2_1 E3_0 E3_1 E3_2" intLanes=":J0_5_0 :J0_5_1 :J0_8_0 :J0_8_1 :J0_8_2"/>
    <junction id=":J1_11_0" type="internal" x="987.00" y="-10.96" incLanes=":J1_2_0 E0_0 E0_1 E0_2" intLanes=":J1_5_0 :J1_5_1 :J1_8_0 :J1_8_1 :J1_8_2"/>
    <junction id=":J1_12_0" type="internal" x="986.22" y="-11.99" incLanes=":J1_2_1 E0_0 E0_1 E0_2" intLanes=":J1_5_0 :J1_5_1 :J1_8_0 :J1_8_1 :J1_8_2"/>
    <junction id=":J2_11_0" type="internal" x="-10.96" y="-987.00" incLanes=":J2_9_0 -E1_0 -E1_1 -E1_2" intLanes=":J2_1_0 :J2_1_1 :J2_4_0 :J2_4_1 :J2_4_2"/>
    <junction id=":J2_12_0" type="internal" x="-11.99" y="-986.22" incLanes=":J2_9_1 -E1_0 -E1_1 -E1_2" intLanes=":J2_1_0 :J2_1_1 :J2_4_0 :J2_4_1 :J2_4_2"/>
    <junction id=":J3_11_0" type="internal" x="-987.00" y="10.96" incLanes=":J3_2_0 -E2_0 -E2_1 -E2_2" intLanes=":J3_5_0 :J3_5_1 :J3_8_0 :J3_8_1 :J3_8_2"/>
    <junction id=":J3_12_0" type="internal" x="-986.22" y="11.99" incLanes=":J3_2_1 -E2_0 -E2_1 -E2_2" intLanes=":J3_5_0 :J3_5_1 :J3_8_0 :J3_8_1 :J3_8_2"/>
    <junction id=":J4_20_0" type="internal" x="-0.00" y="5.87" incLanes=":J4_4_0 -E6_0 -E6_1 -E6_2" intLanes=":J4_6_0 :J4_6_1 :J4_6_2 :J4_9_0 :J4_10_0 :J4_11_0 :J4_11_1 :J4_11_2 :J4_16_0 :J4_16_1 :J4_16_2 :J4_19_0"/>
    <junction id=":J4_21_0" type="internal" x="0.00" y="-5.87" incLanes=":J4_14_0 -E4_0 -E4_1 -E4_2" intLanes=":J4_0_0 :J4_1_0 :J4_1_1 :J4_1_2 :J4_6_0 :J4_6_1 :J4_6_2 :J4_9_0 :J4_16_0 :J4_16_1 :J4_16_2 :J4_19_0"/>

    <connection from="-E0" to="-E3" fromLane="0" toLane="0" via=":J0_0_0" dir="L" state="M"/>
    <connection from="-E0" to="-E3" fromLane="1" toLane="1" via=":J0_0_1" dir="L" state="M"/>
    <connection from="-E0" to="-E4" fromLane="2" toLane="1" via=":J0_2_0" dir="l" state="m"/>
    <connection from="-E0" to="-E4" fromLane="2" toLane="2" via=":J0_2_1" dir="l" state="m"/>